/*--------------------------------*- C++ -*----------------------------------*\
  =========                 |
  \\      /  F ield         | OpenFOAM: The Open Source CFD Toolbox
   \\    /   O peration     | Website:  https://openfoam.org
    \\  /    A nd           | Version:  7
     \\/     M anipulation  |
\*---------------------------------------------------------------------------*/
FoamFile
{
    version     2.0;
    format      ascii;
    class       dictionary;
    location    "system";
    object      fvSchemes;
}
// * * * * * * * * * * * * * * * * * * * * * * * * * * * * * * * * * * * * * //

fluxScheme		Kurganov;

// default option is: Euler
// To use RK2SSP or RK3SSP, please add following line:
 timeScheme      RK2SSP; //RK3SSP;

// default option is: ode
// To use reaction rate directly in simulation, please add:
// chemScheme      direct;

ddtSchemes
{
    default               Euler;
}

gradSchemes
{
    default               Gauss linear;
}

divSchemes
{
    default               none;
    div(tauMC)            Gauss linear;
    div(hDiffCorrFlux)    Gauss cubic;
    div(phi,Yi_h)         Gauss vanLeer;
}

laplacianSchemes
{
    default               Gauss linear uncorrected;	
}

interpolationSchemes
{
    default               linear;
    reconstruct(rho)      Minmod;
    reconstruct(U)        MinmodV;
    reconstruct(T)        Minmod;
    reconstruct(c)        Minmod;
    reconstruct(p)        Minmod;
    reconstruct(Yi)       Minmod;
}

snGradSchemes
{
    default               uncorrected;
}


// ************************************************************************* //
